
  ACD/Labs03221914022D

  8  8  0  0  0  0  0  0  0  0  1 V2000
    0.0000   -3.3255    0.0000 C   0  0  0  0  0  0  0  0  0  0  0  0
    1.1515   -2.6623    0.0000 C   0  0  0  0  0  0  0  0  0  0  0  0
    2.3030   -1.9944    0.0000 C   0  0  0  0  0  0  0  0  0  0  0  0
    2.3030   -0.6679    0.0000 C   0  0  0  0  0  0  0  0  0  0  0  0
    3.4545    0.0000    0.0000 C   0  0  0  0  0  0  0  0  0  0  0  0
    4.6060   -0.6679    0.0000 C   0  0  0  0  0  0  0  0  0  0  0  0
    4.6060   -1.9990    0.0000 C   0  0  0  0  0  0  0  0  0  0  0  0
    3.4545   -2.6623    0.0000 C   0  0  0  0  0  0  0  0  0  0  0  0
  1  2  3  0  0  0  0
  2  3  1  0  0  0  0
  3  4  2  0  0  0  0
  3  8  1  0  0  0  0
  4  5  1  0  0  0  0
  5  6  2  0  0  0  0
  6  7  1  0  0  0  0
  7  8  2  0  0  0  0
M  END
