
  ACD/Labs06251410122D

 16 18  0  0  0  0  0  0  0  0  1 V2000
    6.6971   -2.2971    0.0000 O   0  0  0  0  0  0  0  0  0  0  0  0
    5.3711   -2.2971    0.0000 C   0  0  0  0  0  0  0  0  0  0  0  0
    4.7014   -1.1452    0.0000 C   0  0  0  0  0  0  0  0  0  0  0  0
    5.3711    0.0000    0.0000 C   0  0  0  0  0  0  0  0  0  0  0  0
    3.3753   -1.1452    0.0000 C   0  0  0  0  0  0  0  0  0  0  0  0
    4.7014   -3.4490    0.0000 O   0  0  0  0  0  0  0  0  0  0  0  0
    3.3753   -3.4490    0.0000 C   0  0  0  0  0  0  0  0  0  0  0  0
    2.5382   -3.9379    0.0000 C   0  0  0  0  0  0  0  0  0  0  0  0
    1.6877   -3.4490    0.0000 C   0  0  0  0  0  0  0  0  0  0  0  0
    1.6877   -2.4712    0.0000 C   0  0  0  0  0  0  0  0  0  0  0  0
    0.8505   -1.9823    0.0000 C   0  0  0  0  0  0  0  0  0  0  0  0
    2.5382   -1.9823    0.0000 C   0  0  0  0  0  0  0  0  0  0  0  0
    0.0000   -3.4490    0.0000 C   0  0  0  0  0  0  0  0  0  0  0  0
    0.8505   -4.9090    0.0000 C   0  0  0  0  0  0  0  0  0  0  0  0
    2.5382   -4.9090    0.0000 C   0  0  0  0  0  0  0  0  0  0  0  0
    0.8505   -3.9379    0.0000 C   0  0  0  0  0  0  0  0  0  0  0  0
  1  2  2  0  0  0  0
  2  3  1  0  0  0  0
  2  6  1  0  0  0  0
  3  4  2  0  0  0  0
  3  5  1  0  0  0  0
  6  7  1  0  0  0  0
  7  8  1  0  0  0  0
  7 12  1  0  0  0  0
  7 15  1  0  0  0  0
  8  9  1  0  0  0  0
  9 10  1  0  0  0  0
  9 16  1  0  0  0  0
 10 11  1  0  0  0  0
 11 12  1  0  0  0  0
 11 13  1  0  0  0  0
 13 14  1  0  0  0  0
 14 15  1  0  0  0  0
 14 16  1  0  0  0  0
M  END
