10955092
  -OEChem-08292600563D

 36 38  0     0  0  0  0  0  0999 V2000
    1.2098    0.6933    0.0003 O   0  0  0  0  0  0  0  0  0  0  0  0
    1.7610   -1.5417   -0.0020 O   0  0  0  0  0  0  0  0  0  0  0  0
   -0.1720    0.3647    0.0006 C   0  0  0  0  0  0  0  0  0  0  0  0
   -2.0156   -0.8039    1.2597 C   0  0  0  0  0  0  0  0  0  0  0  0
   -2.4985    1.3327    0.0046 C   0  0  0  0  0  0  0  0  0  0  0  0
   -2.0176   -0.7953   -1.2640 C   0  0  0  0  0  0  0  0  0  0  0  0
   -0.5167   -0.4619    1.2525 C   0  0  0  0  0  0  0  0  0  0  0  0
   -0.9973    1.6640    0.0036 C   0  0  0  0  0  0  0  0  0  0  0  0
   -0.5190   -0.4520   -1.2560 C   0  0  0  0  0  0  0  0  0  0  0  0
   -2.8312    0.5015    1.2568 C   0  0  0  0  0  0  0  0  0  0  0  0
   -2.3541   -1.6137   -0.0046 C   0  0  0  0  0  0  0  0  0  0  0  0
   -2.8341    0.5093   -1.2517 C   0  0  0  0  0  0  0  0  0  0  0  0
    2.0785   -0.3606   -0.0011 C   0  0  0  0  0  0  0  0  0  0  0  0
    3.4826    0.1367    0.0000 C   0  0  0  0  0  0  0  0  0  0  0  0
    3.7637    1.6081    0.0012 C   0  0  0  0  0  0  0  0  0  0  0  0
    4.4605   -0.7811    0.0000 C   0  0  0  0  0  0  0  0  0  0  0  0
   -2.2598   -1.3895    2.1530 H   0  0  0  0  0  0  0  0  0  0  0  0
   -3.0833    2.2592    0.0081 H   0  0  0  0  0  0  0  0  0  0  0  0
   -2.2623   -1.3752   -2.1609 H   0  0  0  0  0  0  0  0  0  0  0  0
   -0.2557    0.1094    2.1537 H   0  0  0  0  0  0  0  0  0  0  0  0
    0.0342   -1.4004    1.3428 H   0  0  0  0  0  0  0  0  0  0  0  0
   -0.7398    2.2770   -0.8698 H   0  0  0  0  0  0  0  0  0  0  0  0
   -0.7383    2.2730    0.8794 H   0  0  0  0  0  0  0  0  0  0  0  0
    0.0332   -1.3892   -1.3534 H   0  0  0  0  0  0  0  0  0  0  0  0
   -0.2597    0.1255   -2.1537 H   0  0  0  0  0  0  0  0  0  0  0  0
   -3.9037    0.2723    1.2792 H   0  0  0  0  0  0  0  0  0  0  0  0
   -2.6105    1.0825    2.1607 H   0  0  0  0  0  0  0  0  0  0  0  0
   -1.7902   -2.5547   -0.0083 H   0  0  0  0  0  0  0  0  0  0  0  0
   -3.4182   -1.8798   -0.0047 H   0  0  0  0  0  0  0  0  0  0  0  0
   -3.9065    0.2797   -1.2731 H   0  0  0  0  0  0  0  0  0  0  0  0
   -2.6158    1.0958   -2.1526 H   0  0  0  0  0  0  0  0  0  0  0  0
    3.3357    2.0817   -0.8884 H   0  0  0  0  0  0  0  0  0  0  0  0
    3.3350    2.0804    0.8913 H   0  0  0  0  0  0  0  0  0  0  0  0
    4.8385    1.8195    0.0018 H   0  0  0  0  0  0  0  0  0  0  0  0
    5.5040   -0.4820    0.0008 H   0  0  0  0  0  0  0  0  0  0  0  0
    4.2625   -1.8478   -0.0009 H   0  0  0  0  0  0  0  0  0  0  0  0
  1  3  1  0  0  0  0
  1 13  1  0  0  0  0
  2 13  2  0  0  0  0
  3  7  1  0  0  0  0
  3  8  1  0  0  0  0
  3  9  1  0  0  0  0
  4  7  1  0  0  0  0
  4 10  1  0  0  0  0
  4 11  1  0  0  0  0
  4 17  1  0  0  0  0
  5  8  1  0  0  0  0
  5 10  1  0  0  0  0
  5 12  1  0  0  0  0
  5 18  1  0  0  0  0
  6  9  1  0  0  0  0
  6 11  1  0  0  0  0
  6 12  1  0  0  0  0
  6 19  1  0  0  0  0
  7 20  1  0  0  0  0
  7 21  1  0  0  0  0
  8 22  1  0  0  0  0
  8 23  1  0  0  0  0
  9 24  1  0  0  0  0
  9 25  1  0  0  0  0
 10 26  1  0  0  0  0
 10 27  1  0  0  0  0
 11 28  1  0  0  0  0
 11 29  1  0  0  0  0
 12 30  1  0  0  0  0
 12 31  1  0  0  0  0
 13 14  1  0  0  0  0
 14 15  1  0  0  0  0
 14 16  2  0  0  0  0
 15 32  1  0  0  0  0
 15 33  1  0  0  0  0
 15 34  1  0  0  0  0
 16 35  1  0  0  0  0
 16 36  1  0  0  0  0
M  END
> <PUBCHEM_COMPOUND_CID>
10955092

> <PUBCHEM_CONFORMER_RMSD>
0.6

> <PUBCHEM_CONFORMER_DIVERSEORDER>
1
4
3
2
5

> <PUBCHEM_MMFF94_PARTIAL_CHARGES>
9
1 -0.43
13 0.71
14 -0.12
15 0.14
16 -0.3
2 -0.57
3 0.28
35 0.15
36 0.15

> <PUBCHEM_EFFECTIVE_ROTOR_COUNT>
4.2

> <PUBCHEM_PHARMACOPHORE_FEATURES>
5
1 2 acceptor
6 3 4 5 7 8 10 rings
6 3 4 6 7 9 11 rings
6 3 5 6 8 9 12 rings
6 4 5 6 10 11 12 rings

> <PUBCHEM_HEAVY_ATOM_COUNT>
16

> <PUBCHEM_ATOM_DEF_STEREO_COUNT>
0

> <PUBCHEM_ATOM_UDEF_STEREO_COUNT>
0

> <PUBCHEM_BOND_DEF_STEREO_COUNT>
0

> <PUBCHEM_BOND_UDEF_STEREO_COUNT>
0

> <PUBCHEM_ISOTOPIC_ATOM_COUNT>
0

> <PUBCHEM_COMPONENT_COUNT>
1

> <PUBCHEM_CACTVS_TAUTO_COUNT>
1

> <PUBCHEM_CONFORMER_ID>
00A7295400000001

> <PUBCHEM_MMFF94_ENERGY>
43.2929

> <PUBCHEM_FEATURE_SELFOVERLAP>
37.934

> <PUBCHEM_SHAPE_FINGERPRINT>
10608611 8 18334293158789010668
10948715 1 18122626055293550441
11132069 177 18334569162014192592
11315181 36 16845283926820296338
12491281 212 18201720600657606249
12916754 54 18272369806315717622
12932764 1 17846216687375665240
13024252 1 17313104151043192137
13214271 11 18335706056641511648
13296908 3 18407761456357170802
13581323 91 15502380032188797066
14289901 80 18261955253789292936
15219456 202 18187366545213467840
15309172 13 17632581534769346398
15775835 57 17989209217822883208
16945 1 18338798910025840581
18186145 218 18040151812584476456
19422 9 18060139868688482830
200 152 18272642463371018319
20525323 117 18412546521912426936
20645464 45 17894916195904881435
2306618 200 17561363954740687041
23419403 2 17100309266271257323
23559900 14 18260541213501579184
369184 2 18408606941964909347
69090 78 18410291376704268553
77492 1 17703791431438980226

> <PUBCHEM_SHAPE_MULTIPOLES>
317.53
6.52
1.57
1.22
7.84
0.17
0
0.32
0
-0.06
0
-1.08
-0.15
0

> <PUBCHEM_SHAPE_SELFOVERLAP>
684.299

> <PUBCHEM_SHAPE_VOLUME>
168.5

> <PUBCHEM_COORDINATE_TYPE>
2
5
10

$$$$
