10955092
  -OEChem-08232603102D

 36 38  0     0  0  0  0  0  0999 V2000
    3.6730    0.6801    0.0000 O   0  0  0  0  0  0  0  0  0  0  0  0
    5.4051    0.6801    0.0000 O   0  0  0  0  0  0  0  0  0  0  0  0
    3.6730   -0.3199    0.0000 C   0  0  0  0  0  0  0  0  0  0  0  0
    4.5092   -1.7682    0.0000 C   0  0  0  0  0  0  0  0  0  0  0  0
    2.8368   -1.7682    0.0000 C   0  0  0  0  0  0  0  0  0  0  0  0
    2.9819   -2.2033    0.0000 C   0  0  0  0  0  0  0  0  0  0  0  0
    4.5092   -0.8027    0.0000 C   0  0  0  0  0  0  0  0  0  0  0  0
    2.8368   -0.8027    0.0000 C   0  0  0  0  0  0  0  0  0  0  0  0
    2.9819   -1.1580    0.0000 C   0  0  0  0  0  0  0  0  0  0  0  0
    3.6730   -2.0710    0.0000 C   0  0  0  0  0  0  0  0  0  0  0  0
    3.8876   -2.6801    0.0000 C   0  0  0  0  0  0  0  0  0  0  0  0
    2.0000   -2.2510    0.0000 C   0  0  0  0  0  0  0  0  0  0  0  0
    4.5390    1.1801    0.0000 C   0  0  0  0  0  0  0  0  0  0  0  0
    4.5390    2.1801    0.0000 C   0  0  0  0  0  0  0  0  0  0  0  0
    5.4050    2.6801    0.0000 C   0  0  0  0  0  0  0  0  0  0  0  0
    3.6730    2.6801    0.0000 C   0  0  0  0  0  0  0  0  0  0  0  0
    5.1016   -1.9509    0.0000 H   0  0  0  0  0  0  0  0  0  0  0  0
    3.3444   -1.4122    0.0000 H   0  0  0  0  0  0  0  0  0  0  0  0
    2.8478   -2.8086    0.0000 H   0  0  0  0  0  0  0  0  0  0  0  0
    5.1198   -0.9103    0.0000 H   0  0  0  0  0  0  0  0  0  0  0  0
    4.7212   -0.2201    0.0000 H   0  0  0  0  0  0  0  0  0  0  0  0
    2.6247   -0.2201    0.0000 H   0  0  0  0  0  0  0  0  0  0  0  0
    2.2262   -0.9103    0.0000 H   0  0  0  0  0  0  0  0  0  0  0  0
    2.6383   -0.6420    0.0000 H   0  0  0  0  0  0  0  0  0  0  0  0
    2.3885   -1.3375    0.0000 H   0  0  0  0  0  0  0  0  0  0  0  0
    3.3030   -2.5685    0.0000 H   0  0  0  0  0  0  0  0  0  0  0  0
    4.0430   -2.5685    0.0000 H   0  0  0  0  0  0  0  0  0  0  0  0
    4.4127   -3.0097    0.0000 H   0  0  0  0  0  0  0  0  0  0  0  0
    3.5782   -3.2174    0.0000 H   0  0  0  0  0  0  0  0  0  0  0  0
    1.5188   -1.8601    0.0000 H   0  0  0  0  0  0  0  0  0  0  0  0
    1.8068   -2.8401    0.0000 H   0  0  0  0  0  0  0  0  0  0  0  0
    5.7150    2.1432    0.0000 H   0  0  0  0  0  0  0  0  0  0  0  0
    5.9420    2.9901    0.0000 H   0  0  0  0  0  0  0  0  0  0  0  0
    5.0950    3.2171    0.0000 H   0  0  0  0  0  0  0  0  0  0  0  0
    3.6730    3.3001    0.0000 H   0  0  0  0  0  0  0  0  0  0  0  0
    3.1361    2.3701    0.0000 H   0  0  0  0  0  0  0  0  0  0  0  0
  1  3  1  0  0  0  0
  1 13  1  0  0  0  0
  2 13  2  0  0  0  0
  3  7  1  0  0  0  0
  3  8  1  0  0  0  0
  3  9  1  0  0  0  0
  4  7  1  0  0  0  0
  4 10  1  0  0  0  0
  4 11  1  0  0  0  0
  4 17  1  0  0  0  0
  5  8  1  0  0  0  0
  5 10  1  0  0  0  0
  5 12  1  0  0  0  0
  5 18  1  0  0  0  0
  6  9  1  0  0  0  0
  6 11  1  0  0  0  0
  6 12  1  0  0  0  0
  6 19  1  0  0  0  0
  7 20  1  0  0  0  0
  7 21  1  0  0  0  0
  8 22  1  0  0  0  0
  8 23  1  0  0  0  0
  9 24  1  0  0  0  0
  9 25  1  0  0  0  0
 10 26  1  0  0  0  0
 10 27  1  0  0  0  0
 11 28  1  0  0  0  0
 11 29  1  0  0  0  0
 12 30  1  0  0  0  0
 12 31  1  0  0  0  0
 13 14  1  0  0  0  0
 14 15  1  0  0  0  0
 14 16  2  0  0  0  0
 15 32  1  0  0  0  0
 15 33  1  0  0  0  0
 15 34  1  0  0  0  0
 16 35  1  0  0  0  0
 16 36  1  0  0  0  0
M  END
> <PUBCHEM_COMPOUND_CID>
10955092

> <PUBCHEM_COMPOUND_CANONICALIZED>
1

> <PUBCHEM_CACTVS_COMPLEXITY>
301

> <PUBCHEM_CACTVS_HBOND_ACCEPTOR>
2

> <PUBCHEM_CACTVS_HBOND_DONOR>
0

> <PUBCHEM_CACTVS_ROTATABLE_BOND>
3

> <PUBCHEM_CACTVS_SUBSKEYS>
AAADceBwMAAAAAAAAAAAAAAAAAAAAAAAAAAwYMGAAAAAAAAAAAAAGgAAAAAADUSAgAACCAAABACIAgDSCAAAAAAAAAAAAAEAAEAABAIAIQACAAAEAAAAIIGAwPAOAAAAAAAAAAAAAAYAAAAAAAAAAAAAAA==

> <PUBCHEM_IUPAC_OPENEYE_NAME>
1-adamantyl 2-methylprop-2-enoate

> <PUBCHEM_IUPAC_CAS_NAME>
2-methyl-2-propenoic acid 1-adamantyl ester

> <PUBCHEM_IUPAC_NAME_MARKUP>
1-adamantyl 2-methylprop-2-enoate

> <PUBCHEM_IUPAC_NAME>
1-adamantyl 2-methylprop-2-enoate

> <PUBCHEM_IUPAC_SYSTEMATIC_NAME>
1-adamantyl 2-methylprop-2-enoate

> <PUBCHEM_IUPAC_TRADITIONAL_NAME>
2-methylacrylic acid 1-adamantyl ester

> <PUBCHEM_IUPAC_INCHI>
InChI=1S/C14H20O2/c1-9(2)13(15)16-14-6-10-3-11(7-14)5-12(4-10)8-14/h10-12H,1,3-8H2,2H3

> <PUBCHEM_IUPAC_INCHIKEY>
MZVABYGYVXBZDP-UHFFFAOYSA-N

> <PUBCHEM_XLOGP3_AA>
3.8

> <PUBCHEM_EXACT_MASS>
220.146329876

> <PUBCHEM_MOLECULAR_FORMULA>
C14H20O2

> <PUBCHEM_MOLECULAR_WEIGHT>
220.31

> <PUBCHEM_SMILES>
CC(=C)C(=O)OC12CC3CC(C1)CC(C3)C2

> <PUBCHEM_CONNECTIVITY_SMILES>
CC(=C)C(=O)OC12CC3CC(C1)CC(C3)C2

> <PUBCHEM_CACTVS_TPSA>
26.3

> <PUBCHEM_MONOISOTOPIC_WEIGHT>
220.146329876

> <PUBCHEM_TOTAL_CHARGE>
0

> <PUBCHEM_HEAVY_ATOM_COUNT>
16

> <PUBCHEM_ATOM_DEF_STEREO_COUNT>
0

> <PUBCHEM_ATOM_UDEF_STEREO_COUNT>
0

> <PUBCHEM_BOND_DEF_STEREO_COUNT>
0

> <PUBCHEM_BOND_UDEF_STEREO_COUNT>
0

> <PUBCHEM_ISOTOPIC_ATOM_COUNT>
0

> <PUBCHEM_COMPONENT_COUNT>
1

> <PUBCHEM_CACTVS_TAUTO_COUNT>
-1

> <PUBCHEM_COORDINATE_TYPE>
1
5
255

$$$$
