94932
  -OEChem-08292600262D

 45 46  0     0  0  0  0  0  0999 V2000
    3.0000    4.0000    0.0000 O   0  0  0  0  0  0  0  0  0  0  0  0
    3.0000   -4.0000    0.0000 O   0  0  0  0  0  0  0  0  0  0  0  0
    3.0000    0.0000    0.0000 C   0  0  0  0  0  0  0  0  0  0  0  0
    3.0000    1.0000    0.0000 C   0  0  0  0  0  0  0  0  0  0  0  0
    3.0000   -1.0000    0.0000 C   0  0  0  0  0  0  0  0  0  0  0  0
    2.1340    1.5000    0.0000 C   0  0  0  0  0  0  0  0  0  0  0  0
    3.8660    1.5000    0.0000 C   0  0  0  0  0  0  0  0  0  0  0  0
    3.8660   -1.5000    0.0000 C   0  0  0  0  0  0  0  0  0  0  0  0
    2.1340   -1.5000    0.0000 C   0  0  0  0  0  0  0  0  0  0  0  0
    4.0000    0.0000    0.0000 C   0  0  0  0  0  0  0  0  0  0  0  0
    2.0000    0.0000    0.0000 C   0  0  0  0  0  0  0  0  0  0  0  0
    2.1340    2.5000    0.0000 C   0  0  0  0  0  0  0  0  0  0  0  0
    3.8660    2.5000    0.0000 C   0  0  0  0  0  0  0  0  0  0  0  0
    3.8660   -2.5000    0.0000 C   0  0  0  0  0  0  0  0  0  0  0  0
    2.1340   -2.5000    0.0000 C   0  0  0  0  0  0  0  0  0  0  0  0
    3.0000    3.0000    0.0000 C   0  0  0  0  0  0  0  0  0  0  0  0
    3.0000   -3.0000    0.0000 C   0  0  0  0  0  0  0  0  0  0  0  0
    3.5369    0.6900    0.0000 H   0  0  0  0  0  0  0  0  0  0  0  0
    3.5369   -0.6900    0.0000 H   0  0  0  0  0  0  0  0  0  0  0  0
    1.5234    1.6077    0.0000 H   0  0  0  0  0  0  0  0  0  0  0  0
    1.9219    0.9174    0.0000 H   0  0  0  0  0  0  0  0  0  0  0  0
    4.0781    0.9174    0.0000 H   0  0  0  0  0  0  0  0  0  0  0  0
    4.4766    1.6077    0.0000 H   0  0  0  0  0  0  0  0  0  0  0  0
    4.4766   -1.6077    0.0000 H   0  0  0  0  0  0  0  0  0  0  0  0
    4.0781   -0.9174    0.0000 H   0  0  0  0  0  0  0  0  0  0  0  0
    1.9219   -0.9174    0.0000 H   0  0  0  0  0  0  0  0  0  0  0  0
    1.5234   -1.6077    0.0000 H   0  0  0  0  0  0  0  0  0  0  0  0
    4.0000   -0.6200    0.0000 H   0  0  0  0  0  0  0  0  0  0  0  0
    4.6200    0.0000    0.0000 H   0  0  0  0  0  0  0  0  0  0  0  0
    4.0000    0.6200    0.0000 H   0  0  0  0  0  0  0  0  0  0  0  0
    2.0000    0.6200    0.0000 H   0  0  0  0  0  0  0  0  0  0  0  0
    1.3800    0.0000    0.0000 H   0  0  0  0  0  0  0  0  0  0  0  0
    2.0000   -0.6200    0.0000 H   0  0  0  0  0  0  0  0  0  0  0  0
    1.9219    3.0826    0.0000 H   0  0  0  0  0  0  0  0  0  0  0  0
    1.5234    2.3923    0.0000 H   0  0  0  0  0  0  0  0  0  0  0  0
    4.4766    2.3923    0.0000 H   0  0  0  0  0  0  0  0  0  0  0  0
    4.0781    3.0826    0.0000 H   0  0  0  0  0  0  0  0  0  0  0  0
    4.0781   -3.0826    0.0000 H   0  0  0  0  0  0  0  0  0  0  0  0
    4.4766   -2.3923    0.0000 H   0  0  0  0  0  0  0  0  0  0  0  0
    1.5234   -2.3923    0.0000 H   0  0  0  0  0  0  0  0  0  0  0  0
    1.9219   -3.0826    0.0000 H   0  0  0  0  0  0  0  0  0  0  0  0
    3.5369    3.3100    0.0000 H   0  0  0  0  0  0  0  0  0  0  0  0
    3.5369   -3.3100    0.0000 H   0  0  0  0  0  0  0  0  0  0  0  0
    3.5369    4.3100    0.0000 H   0  0  0  0  0  0  0  0  0  0  0  0
    2.4631   -4.3100    0.0000 H   0  0  0  0  0  0  0  0  0  0  0  0
  1 16  1  0  0  0  0
  1 44  1  0  0  0  0
  2 17  1  0  0  0  0
  2 45  1  0  0  0  0
  3  4  1  0  0  0  0
  3  5  1  0  0  0  0
  3 10  1  0  0  0  0
  3 11  1  0  0  0  0
  4  6  1  0  0  0  0
  4  7  1  0  0  0  0
  4 18  1  0  0  0  0
  5  8  1  0  0  0  0
  5  9  1  0  0  0  0
  5 19  1  0  0  0  0
  6 12  1  0  0  0  0
  6 20  1  0  0  0  0
  6 21  1  0  0  0  0
  7 13  1  0  0  0  0
  7 22  1  0  0  0  0
  7 23  1  0  0  0  0
  8 14  1  0  0  0  0
  8 24  1  0  0  0  0
  8 25  1  0  0  0  0
  9 15  1  0  0  0  0
  9 26  1  0  0  0  0
  9 27  1  0  0  0  0
 10 28  1  0  0  0  0
 10 29  1  0  0  0  0
 10 30  1  0  0  0  0
 11 31  1  0  0  0  0
 11 32  1  0  0  0  0
 11 33  1  0  0  0  0
 12 16  1  0  0  0  0
 12 34  1  0  0  0  0
 12 35  1  0  0  0  0
 13 16  1  0  0  0  0
 13 36  1  0  0  0  0
 13 37  1  0  0  0  0
 14 17  1  0  0  0  0
 14 38  1  0  0  0  0
 14 39  1  0  0  0  0
 15 17  1  0  0  0  0
 15 40  1  0  0  0  0
 15 41  1  0  0  0  0
 16 42  1  0  0  0  0
 17 43  1  0  0  0  0
M  END
> <PUBCHEM_COMPOUND_CID>
94932

> <PUBCHEM_COMPOUND_CANONICALIZED>
1

> <PUBCHEM_CACTVS_COMPLEXITY>
209

> <PUBCHEM_CACTVS_HBOND_ACCEPTOR>
2

> <PUBCHEM_CACTVS_HBOND_DONOR>
2

> <PUBCHEM_CACTVS_ROTATABLE_BOND>
2

> <PUBCHEM_CACTVS_SUBSKEYS>
AAADceBwMAAAAAAAAAAAAAAAAAAAAAAAAAAwYAAAAAAAAAAAAAAAGgAACAAADxSggAICAAAAAgAAAAAAAAAAAAAAAAAAAAAAAAAAEAIAAAAAQAAEAAAAAAGAwPAPgAAAAAAAAABAAAAAAAAAAAAAAAAAAA==

> <PUBCHEM_IUPAC_OPENEYE_NAME>
4-[1-(4-hydroxycyclohexyl)-1-methyl-ethyl]cyclohexanol

> <PUBCHEM_IUPAC_CAS_NAME>
4-[2-(4-hydroxycyclohexyl)propan-2-yl]-1-cyclohexanol

> <PUBCHEM_IUPAC_NAME_MARKUP>
4-[2-(4-hydroxycyclohexyl)propan-2-yl]cyclohexan-1-ol

> <PUBCHEM_IUPAC_NAME>
4-[2-(4-hydroxycyclohexyl)propan-2-yl]cyclohexan-1-ol

> <PUBCHEM_IUPAC_SYSTEMATIC_NAME>
4-[2-(4-oxidanylcyclohexyl)propan-2-yl]cyclohexan-1-ol

> <PUBCHEM_IUPAC_TRADITIONAL_NAME>
4-[1-(4-hydroxycyclohexyl)-1-methyl-ethyl]cyclohexanol

> <PUBCHEM_IUPAC_INCHI>
InChI=1S/C15H28O2/c1-15(2,11-3-7-13(16)8-4-11)12-5-9-14(17)10-6-12/h11-14,16-17H,3-10H2,1-2H3

> <PUBCHEM_IUPAC_INCHIKEY>
CDBAMNGURPMUTG-UHFFFAOYSA-N

> <PUBCHEM_XLOGP3>
3.3

> <PUBCHEM_EXACT_MASS>
240.208930132

> <PUBCHEM_MOLECULAR_FORMULA>
C15H28O2

> <PUBCHEM_MOLECULAR_WEIGHT>
240.38

> <PUBCHEM_SMILES>
CC(C)(C1CCC(CC1)O)C2CCC(CC2)O

> <PUBCHEM_CONNECTIVITY_SMILES>
CC(C)(C1CCC(CC1)O)C2CCC(CC2)O

> <PUBCHEM_CACTVS_TPSA>
40.5

> <PUBCHEM_MONOISOTOPIC_WEIGHT>
240.208930132

> <PUBCHEM_TOTAL_CHARGE>
0

> <PUBCHEM_HEAVY_ATOM_COUNT>
17

> <PUBCHEM_ATOM_DEF_STEREO_COUNT>
0

> <PUBCHEM_ATOM_UDEF_STEREO_COUNT>
0

> <PUBCHEM_BOND_DEF_STEREO_COUNT>
0

> <PUBCHEM_BOND_UDEF_STEREO_COUNT>
0

> <PUBCHEM_ISOTOPIC_ATOM_COUNT>
0

> <PUBCHEM_COMPONENT_COUNT>
1

> <PUBCHEM_CACTVS_TAUTO_COUNT>
-1

> <PUBCHEM_COORDINATE_TYPE>
1
5
255

$$$$
