
     RDKit          3D

  9  8  0  0  0  0  0  0  0  0999 V2000
    0.9750    0.3039    0.1174 C   0  0  0  0  0  0  0  0  0  0  0  0
   -0.3699   -0.3652    0.3550 C   0  0  0  0  0  0  0  0  0  0  0  0
   -1.4000    0.5515    0.1128 O   0  0  0  0  0  0  0  0  0  0  0  0
    1.0443    0.6558   -0.9338 H   0  0  0  0  0  0  0  0  0  0  0  0
    1.0945    1.1708    0.8014 H   0  0  0  0  0  0  0  0  0  0  0  0
    1.7936   -0.4216    0.3091 H   0  0  0  0  0  0  0  0  0  0  0  0
   -0.4199   -0.7213    1.4081 H   0  0  0  0  0  0  0  0  0  0  0  0
   -0.4703   -1.2369   -0.3293 H   0  0  0  0  0  0  0  0  0  0  0  0
   -2.2472    0.0632    0.2823 H   0  0  0  0  0  0  0  0  0  0  0  0
  1  2  1  0
  2  3  1  0
  1  4  1  0
  1  5  1  0
  1  6  1  0
  2  7  1  0
  2  8  1  0
  3  9  1  0
M  END
